contingency/no_load/0pc/TNB_DUMA_VLN.Txt

SYMMETRICAL COMPONENT VOLTAGES BY BUS (for 3-phase buses)

Bus               Mag:   V1 (kV)    p.u.     V2 (kV)   %V2/V1    V0 (kV)    %V0/V1

ppu_duma_33kv        19.05          1  9.311E-009  4.887E-008 1.239E-009 6.505E-009
ppu_duma_11kv        6.351          1  3.29E-009  5.18E-008 7.62E-014  1.2E-012
rpplngi2             6.351          1  3.29E-009  5.18E-008 7.54E-014 1.187E-012
pdtjlnmasjid         6.351          1  3.29E-009  5.18E-008 7.411E-014 1.167E-012
bella                6.351          1  3.29E-009  5.18E-008 7.317E-014 1.152E-012
pstpdgn              6.351          1  3.29E-009  5.18E-008 7.336E-014 1.155E-012
pamdra               6.351          1  3.29E-009  5.18E-008 7.603E-014 1.197E-012
duma4                6.351          1  3.29E-009  5.18E-008 7.737E-014 1.218E-012
plsdra               6.351          1  3.29E-009  5.18E-008 8.132E-014 1.28E-012
ssu_uptwres_ir1      6.351          1  3.29E-009  5.18E-008 8.106E-014 1.276E-012
atria_1              6.351          1  3.29E-009  5.18E-008 7.594E-014 1.196E-012
hawker               6.351          1  3.29E-009  5.18E-008 7.613E-014 1.199E-012
prmte                6.351          1  3.29E-009  5.18E-008 6.412E-014 1.01E-012
prmta                6.351          1  3.289E-009  5.18E-008 6.277E-014 9.884E-013
pmontb               6.351          1  3.289E-009  5.18E-008 6.383E-014 1.005E-012
duma7                6.351          1  3.29E-009  5.18E-008 7.678E-014 1.209E-012
haus                 6.351          1  3.29E-009  5.18E-008 7.557E-014 1.19E-012
duma6                6.351          1  3.29E-009  5.18E-008 7.574E-014 1.193E-012
duma13               6.351          1  3.29E-009  5.18E-008 6.914E-014 1.089E-012
ssu_duma5_im2        6.351          1  3.29E-009  5.18E-008 6.878E-014 1.083E-012
plngi_b              6.351          1  3.29E-009  5.18E-008 7.749E-014 1.22E-012
plngi_d              6.351          1  3.29E-009  5.18E-008 7.737E-014 1.218E-012
pdtlitrak            6.351          1  3.29E-009  5.18E-008 7.655E-014 1.205E-012
duma12               6.351          1  3.29E-009  5.18E-008 7.711E-014 1.214E-012
tmngh4               6.351          1  3.29E-009  5.18E-008 7.602E-014 1.197E-012
ssu_tmegah3_ir1      6.351          1  3.29E-009  5.18E-008 7.394E-014 1.164E-012
tmngh2               6.351          1  3.29E-009  5.18E-008 7.537E-014 1.187E-012
sprk9                6.351          1  3.29E-009  5.18E-008 7.87E-014 1.239E-012
bomba                6.351          1  3.29E-009  5.18E-008 7.719E-014 1.215E-012
sprk8                6.351          1  3.29E-009  5.18E-008 7.754E-014 1.221E-012
ssu_uptwres_im2      6.351          1  3.29E-009  5.18E-008 6.88E-014 1.083E-012
maybank              6.351          1  3.29E-009  5.18E-008 6.782E-014 1.068E-012
duma8                6.351          1  3.29E-009  5.18E-008 6.718E-014 1.058E-012
ssu_dsarcntr_ir1     6.351          1  3.29E-009  5.18E-008 7.606E-014 1.198E-012
duma9                6.351          1  3.29E-009  5.18E-008 7.364E-014 1.159E-012
duma1                6.351          1  3.29E-009  5.18E-008 7.27E-014 1.145E-012
elite                6.351          1  3.29E-009  5.18E-008 7.245E-014 1.141E-012
duma10               6.351          1  3.29E-009  5.18E-008 7.041E-014 1.109E-012
balaipolis           6.351          1  3.29E-009  5.18E-008 7.001E-014 1.102E-012
ppu_duma_vcb1            0          0          0          0         0         0
